3
 energy: -5.504066223620 gnorm: 0.000007297702 xtb: 6.7.1 (edcfbbe)
C            0.94905383497333       -0.06426000000301        0.07534000000353
N           -0.18859151918785       -0.06425999999854        0.07533999999829
H            2.00754768421452       -0.06425999999844        0.07533999999818
