4
 energy: -4.426244036352 gnorm: 0.000024798642 xtb: 6.7.1 (edcfbbe)
N            0.91338699550038       -0.04061982938618       -0.02078749749881
H            0.59154922562853        0.62582510397593       -0.71201452446694
H            0.59074104330097       -0.95753808024488       -0.30483636283318
H            1.92561273557012       -0.04866719434487       -0.05007161520107
