3
 energy: -5.070544447824 gnorm: 0.000003564392 xtb: 6.7.1 (edcfbbe)
O            1.06392762369523       -0.05060726182210       -0.05867025336956
H            0.76197454871325        0.82481578344583       -0.30877185625975
H            2.02295782759152       -0.03253852162372       -0.06382789037068
