3
 energy: -10.308452289197 gnorm: 0.000000528211 xtb: 6.7.1 (edcfbbe)
O            1.12146114512598       -0.20342151352167        0.20418108905422
C            2.05525033954306        0.34019019766729       -0.17060219891980
O            2.98903851533096        0.88380131585438       -0.54538889013441
