4
 energy: -14.141935267149 gnorm: 0.000002250025 xtb: 6.7.1 (edcfbbe)
O            1.05484687637257        0.02861439784934       -0.01560872606658
C            2.23714150669505        0.08047983860998        0.39619075701620
O            2.82967815741440        1.18256368142122        0.46254562419458
O            2.82689345951799       -0.96973791788054        0.74162234485580
