3
 energy: -10.308452289201 gnorm: 0.000000464541 xtb: 6.7.1 (edcfbbe)
O            1.25934373888822        0.13084806813883       -0.19434445910217
C            2.19312945020018       -0.13043984615737        0.41204758097681
O            3.12691681091160       -0.39172822198146        1.01843687812537
