12
 energy: -21.293126417754 gnorm: 0.000044292409 xtb: 6.7.1 (edcfbbe)
C            0.35551782624921       -0.56477695933012        0.99937134718061
N           -0.66691977649042        0.15763532055811        1.15021374420547
H            0.43298926213748       -1.64262427370529        1.20210916596253
O            2.87906211075672       -1.89875713552488        0.87322704559211
H           -1.48334710701018       -0.33000151597755        1.50215296541519
H            3.12208753995129       -1.58378711670336        1.75011569988047
O            2.30874871337102       -1.30893457989844       -1.21601325543617
H            1.46406521189669        0.93753108147175        0.28294845396076
H            1.73366034832788       -2.07985527654906       -1.12236461271995
C            2.60243023889718       -0.82085766015812        0.03826605241416
N            1.54141536736840       -0.01504577204637        0.60784767205551
H            3.47570026454478       -0.16022611213674       -0.08793427851069
