15
 energy: -26.865036682919 gnorm: 0.000044618783 xtb: 6.7.1 (edcfbbe)
C            6.04404020023672       -3.40722379673315        0.64794379551750
N            6.56040608772360       -4.53685714321987        0.42651533449131
H            5.70646174797721       -3.01578028907221        1.61884139857957
O            3.88508334985341       -1.21575905266450       -0.32499571412397
H            6.67411157161351       -5.11934984918505        1.24812309383195
H            3.62341704559434       -1.82012995031505       -1.03109124572759
C            5.30835350690546       -1.22143748027683       -0.22620894885788
N            5.81982840303561       -2.54258780996453       -0.37145477157230
H            5.51393546292429       -0.84897088627601        0.79085633419552
O            4.27055698516792        1.19050573056801       -1.43840555805241
H            6.19960373263261       -2.79684061563958       -1.27085884559913
H            3.75690717491851        0.60447354116202       -0.84518379689858
C            5.46797903776203        0.66167245505130       -1.64996965573434
N            5.97724975998049       -0.38738061959399       -1.17791440872462
H            6.06918593367393        1.24498576615970       -2.33850701132449
