14
 energy: -27.521080610736 gnorm: 0.000030783427 xtb: 6.7.1 (edcfbbe)
O            2.53610000474645        0.31102292272036        1.84063349932463
O            0.41521152316435        0.14038502331277        1.11293392075159
H            4.85889734725064       -0.79658960639593        1.44417741087975
C            1.25300784191166        0.53784304098046        1.87926256840937
H            1.01989890612865        1.18195478658485        2.74395095532256
O            4.05508544704553       -1.33458204268789        1.43556898495439
C            3.07489563930437       -0.60941914316769        0.82554835317170
H            2.26376938484634       -1.30899225228646        0.56223594142868
N            1.59331404579320        0.45237767062140       -1.44068155976331
H            1.17506913676125        0.88236588365350       -2.24583581891673
H            0.97254701809187        0.13225349701554       -0.70537221000689
C            2.91470314083803        0.55015455841920       -1.23184768114181
N            3.61647930854187        0.12343188696130       -0.26024522847030
H            3.47525125557511        1.04506377426809       -2.01853913594370
