10
 energy: -15.082971211741 gnorm: 0.000037295561 xtb: 6.7.1 (edcfbbe)
O            1.02384143778970       -0.02417554657975       -0.06048766928164
H            2.56381315171638        0.65391800049634        1.87076163906808
H            0.70143339570579        0.88351458519586       -0.07615091272901
N            2.85944990414860       -1.34507179153678        0.08146830100473
H            3.85144553447686        1.09335669606485        0.94022527312015
H            3.85671068045476       -1.39457126996725        0.24653677526592
H            2.36150679121960       -1.79477257920155        0.84082559466315
C            2.41498021061980        0.01632652560319       -0.06616865225123
N            2.84700169228661        0.96858742018757        0.94757207332991
H            2.80308720158190        0.39150795973753       -1.03100242219006
