18
 energy: -31.967263240402 gnorm: 0.000044820925 xtb: 6.7.1 (edcfbbe)
O            2.31507221185877       -0.45659567050395        0.71633206555039
H            3.76145360053519       -3.29655082812116        0.99221468596658
H            4.11263006006464       -1.88670145230472        1.77063419673958
C            2.80574609866318       -1.66293140879378        0.22949030872259
N            3.37768178791270       -2.41878553253434        1.31951626971464
H            3.51277000830568       -1.37843679840786       -0.57090333237821
C            1.37084066143178       -2.38455431857742       -1.63895520400789
N            1.78440523704378       -2.48680771880553       -0.36119338847715
H            2.03120221534116       -1.79479285700420       -2.28703632193481
O            0.04023955178212       -4.15120346392863       -4.00075186294832
H            1.15684929204936       -2.95366964778343        0.27834477920747
H           -0.44581736672993       -4.76501983076024       -3.43479564351247
O           -1.30069145464125       -2.32653045687740       -3.54822469420882
H            1.76222099840284       -0.63543754496339        1.48838456454929
H           -1.87968609326734       -2.75959337920564       -2.90742568195000
C           -0.03289542003131       -2.88250714889754       -3.43363959858233
N            0.32212047433901       -2.96352756720590       -2.04873527447048
H            0.63620813693949       -2.24633437532430       -4.03427586798068
