13
 energy: -20.660103006122 gnorm: 0.000042269843 xtb: 6.7.1 (edcfbbe)
O            1.36528985926897       -0.14555257905890        0.65519816553957
H            2.00895537839839        0.68882886826535       -1.84307346936658
H            0.73979396258724        0.41319670714805        0.18072691982910
C            2.52544825248301       -0.25518539343665       -0.14138743830897
N            2.13712680495196       -0.27013484641968       -1.53089664961721
H            2.96748955892697       -1.23212253890985        0.11092136617961
N            3.32781008349682        0.71952098457120        2.43423768604943
H            2.87427985524543       -0.66971290914466       -2.09697779533147
H            3.52338677814398        1.21113260840416        3.28736234070854
H            2.52434696943947        0.11028722819324        2.40863158045427
C            3.79751558457295        1.17769391826728        1.25144671966064
N            3.49571599019996        0.78838425070876        0.08580806019288
H            4.55644092228506        1.95135370141212        1.32030251401060
