18
 energy: -31.980164346157 gnorm: 0.000021794077 xtb: 6.7.1 (edcfbbe)
O            1.07351689583972        0.24019078293614        0.72431818675567
H            4.39210645100700       -1.54056519560785        2.93322968757727
H            1.51224425409933       -1.17185332681886        3.14475023054089
C            2.28738087213899        0.20775238968620        0.68956579044154
N            3.03798198592602       -0.84289814412552        1.06757581964759
H            2.89489030645225        1.05230935105334        0.33992081760379
O            1.26451180938736       -2.38521014448711        0.84475319324497
H            1.86543562120943       -2.75217992268835        3.39752236934000
H            0.72400416793992       -1.57185755846976        0.76837090604026
C            2.39838993328942       -2.07140675642257        1.55478751497167
N            2.21082666180820       -1.89320635357928        2.98437528091338
H            3.10330086334352       -2.89986639844575        1.40638885690170
O            4.95736373886620       -1.62738778907000        2.14822188181542
H            4.60251245105338        0.94258592377774        2.21832102296955
H            5.89974566502284        0.67153690626675        1.24406102916584
C            4.49533098881856       -0.77824795455635        1.14682316531984
N            4.89292099938131        0.59204437048543        1.31079429207164
H            4.93666633441582       -1.15194017993374        0.20978995467784
