16
 energy: -25.748530928256 gnorm: 0.000039784404 xtb: 6.7.1 (edcfbbe)
O            3.45596659207709       -1.20130351290639        1.64887699291216
H            2.07830835101463        1.04061265962231        1.77115388143590
H            3.63104790514372       -0.67108714130688        2.43767651382932
O            3.95092016381954        0.56831808401690        0.24787881601468
H            1.36281134279266        0.80129335181495        0.31480946388042
H            4.40756953985902        0.54844446078444       -2.27152692424966
C            2.96727714350784       -0.37798820664107        0.65677217005967
N            1.80826891818811        0.33404727778589        1.09356727862065
H            2.70964967240959       -1.03465869039721       -0.18463799315511
N            6.13279392931057        0.96379851205162       -0.23661411669596
H            5.42143882251827       -0.75618606238042       -2.27310679064397
H            6.94347728093984        0.69277746589022       -0.77997132082186
H            5.83007257580338        1.88772892732153       -0.52433099408578
C            5.05661048391949        0.01691071986772       -0.40911089220825
N            4.67148114603020       -0.29549042419067       -1.77376214343906
H            5.35377613266602       -0.92946742133324        0.06944605854648
