15
 energy: -26.835179841204 gnorm: 0.000031048628 xtb: 6.7.1 (edcfbbe)
C            3.50194476755699       -0.93511192212087       -0.63222139805753
N            4.09801442618348       -1.85820684363689       -1.22741195980679
H            2.90389836688938       -0.12299467979276       -1.09032750544613
O            3.08045306348014        1.69519551590768        4.31795943423799
H            1.16434080470065       -0.17561011304912        4.24114855111301
H            3.53750951864687        0.93473469375451        4.70027457410147
C            2.26770107074283        1.22755650946196        3.28152129403024
N            1.00679991751597        0.67696820928228        3.71335821744952
H            2.04878893846549        2.10429134215728        2.64807866988062
O            3.56098485553181       -0.87719117896202        0.70809618967148
H            0.52920330220501        1.34181972455328        4.31079398492899
H            4.01862101132765       -1.85363579517049       -2.23708516350033
C            2.92767541337299        0.11219647802500        1.34071069290241
N            2.97231650080175        0.18800807604166        2.58926337405575
H            2.38590804257863        0.82650998354852        0.69267104443903
