15
 energy: -26.845380500922 gnorm: 0.000027222484 xtb: 6.7.1 (edcfbbe)
C            4.69412287264386        0.26574311512364        1.37754400284661
N            5.09611548170368        0.78408012475141        2.45364153591686
H            5.30840507385574        0.07645049400396        0.48326727563852
O            1.00945031956136        3.52444865802583        1.53808128154370
H            0.80781075261314        1.75265510617917        3.49962670656264
H            1.76179047031753        3.76267683980790        2.09677612073453
C            0.89204039696404        2.14642971709651        1.50921360743429
N            0.27707495967002        1.55027461698699        2.65836961020688
H            0.27798233148240        1.90500768209353        0.62719606486408
O            2.19809661873987        1.62794669972935        1.37339391548398
H            6.07838078084597        1.04387586922378        2.45772761827749
H           -0.67060145499168        1.88298248840888        2.77686889576264
C            2.34389760410909        0.29493126829195        1.30525417224030
N            3.45056916112989       -0.28479152537931        1.24609333142191
H            1.43094463135488       -0.29152115434411        1.25977586106537
