18
 energy: -31.962262276105 gnorm: 0.000030553810 xtb: 6.7.1 (edcfbbe)
O            2.59521080765060        1.67952005818067       -1.42839291170766
H            1.97480493127319       -0.00145980653974        2.04022966231799
H            3.31353787518040        1.33552853161003       -1.97499276055762
O            3.95972364184457        3.04744696573701       -0.17731477182897
H            4.68033858720982        0.74452417617039       -0.02275776459879
H            3.52207181024064        3.80956660755495       -0.57275867738051
C            3.07496688368426        1.95432523564293       -0.16159602655603
N            3.75413120399468        0.81903479069566        0.39089530365820
H            2.18891133190776        2.16882538252163        0.45359182817177
C            2.20831123761914        1.26553004400147        3.58630835993761
N            1.10564316830848        0.95242912808434        4.11493530235240
H            2.93940211375463        1.99125325064671        3.96969343720224
O            4.72610495921886       -0.23846181972121        2.20214328637545
H            0.89591435613955        1.44267227297961        4.97702716455087
H            4.34947572547224       -1.06346562942353        1.86917048207541
C            3.89330286946871        0.81398029824959        1.83802218663165
N            2.58638432905105        0.71408966971779        2.40694740377375
H            4.37912416798177        1.72215084389161        2.23192849558125
