12
 energy: -21.307805130983 gnorm: 0.000030642821 xtb: 6.7.1 (edcfbbe)
O            0.86476011534465       -1.29613485828556        1.57163701821220
H            2.86835550198856       -0.57069099895925        2.90228847134005
H            5.33091124528274       -0.93754286193352        3.09576993943037
C            1.96666524208381       -1.06482511053691        1.14895231814470
N            3.02463066828930       -0.72762059868359        1.91613169761701
H            2.23818751398875       -1.13382781555604        0.08111349961748
O            4.81299830557993       -1.40384067727995        0.56830365922049
H            6.05173440414298        0.28616468798727        2.26429404447773
H            4.76893151109001       -2.25607667900707        1.02211357850259
C            4.33698889903337       -0.39041070472032        1.40863484959102
N            5.16090462805052       -0.10217355725756        2.54486230602192
H            4.29841196512535        0.50386917423252        0.76939861782441
