15
 energy: -26.834511111016 gnorm: 0.000036734999 xtb: 6.7.1 (edcfbbe)
C            3.99876031590052       -0.63459572526997        1.19485234312217
N            3.35279343065371       -1.24836989456679        2.06124731415149
H            4.96235843926433       -1.01633201483908        0.86753687423062
O            3.58855351099427        0.51972006623075        0.59826437045733
H            4.24958662898251        2.66094190421495       -1.62810376766181
H            2.46742920985588       -0.81870232494263        2.31839482619968
C            4.45266695649418        1.10763219876437       -0.33610797576541
N            3.78052018782051        2.27394115036862       -0.81995681653989
H            4.72173420441294        0.35974278200188       -1.11437967806953
O            5.68882895931230        1.44211173531319        0.22742724126666
H            6.66429244843572        3.36498439153760        2.50463220282667
H            2.81407028363574        2.07132770545473       -1.03626208141795
C            5.67069963310851        2.36277200327187        1.21551963481605
N            6.74764099120620        2.66923715760969        1.77211982836231
H            4.66737479992268        2.75837886485090        1.42943568402156
