15
 energy: -26.884024634474 gnorm: 0.000023419851 xtb: 6.7.1 (edcfbbe)
O            1.84580944542863        0.63642665768059        0.10220925451686
H            5.79352270278073       -0.05046856801686       -2.29959927797443
H            2.49931952388560       -0.86358578712607       -2.59477847226252
C            1.69763962440460        0.11812060921902       -0.98807739679199
N            2.67391226932549       -0.45838347789644       -1.68911521199377
H            0.71617994499638        0.07541197821856       -1.48463820750109
C            4.07655869919034       -0.40598535904301       -1.28319376251476
N            4.85174306646888       -0.36549679601509       -2.49648733013467
H            4.21646339754492        0.54314116622515       -0.73812641739105
O            3.46424825773804       -0.91656523021608        1.54844806804778
H            4.92356016366112       -1.30850913957016       -2.86706848672643
H            2.96337493499848       -0.18960830756428        1.09220229134825
C            4.17470022569387       -1.66979015371172        0.73573821867075
N            4.45967695199388       -1.54959643829773       -0.48636810538266
H            4.58506079188906       -2.54119115388595        1.24027483608973
