6
 energy: -10.644270382535 gnorm: 0.000017144580 xtb: 6.7.1 (edcfbbe)
O            1.00313522456763        0.06752628730718        0.04110052722206
H            2.45987225785929       -0.40855541666943       -1.95807407572120
H            3.94081007429119       -0.20112232416564       -1.08700937483264
C            2.20390417363032        0.05869085358729        0.00400088387837
N            2.93726075709165       -0.20295469480541       -1.09470755314181
H            2.83708751255991        0.26878529474600        0.88623959259522
