7
 energy: -9.987571261294 gnorm: 0.000009031461 xtb: 6.7.1 (edcfbbe)
N            0.99792149740880       -0.07612217930795        0.00680123717649
H            3.96435924085669       -1.05999361574599        0.46788705329884
H            0.49555942717230        0.70790908995186       -0.36061479879512
H            0.49758731456368       -0.86462029233760        0.37632872357142
C            2.34720618909357       -0.11921783590810        0.02700500514672
N            2.95338108887906       -1.12290833326212        0.49737543263175
H            2.81225524202591        0.78449316660991       -0.39651265303010
