15
 energy: -26.393050776296 gnorm: 0.000019923147 xtb: 6.7.1 (edcfbbe)
O            4.59916601686285        0.00812465849160       -0.27110480321873
H            5.70499376096548       -0.90201042572069       -2.58850901868389
H            5.43350412942639       -0.46175781562317       -0.14701035523636
O            5.77126585694960        0.44050593028693       -4.72259214688952
H            4.63039939786494        2.25142492526140       -3.30519200150711
H            6.27846264483967       -0.37772107230730       -4.73317589903632
C            4.67417883690277        0.32710186322192       -3.84845892036714
N            4.00244231921964        1.58371560843453       -3.74091509840827
H            3.95074143468973       -0.41234154277085       -4.25607834540037
O            3.63696430396718       -1.55657274248193       -1.65588596294656
H            3.77543689328982        1.92175461071249       -4.66876346996543
H            2.95475826426689       -1.69826459047769       -0.99048424294302
C            4.12347592139027       -0.23761127200740       -1.54814534440371
N            5.14747756850500       -0.05352584242743       -2.53047617865957
H            3.32964265086022        0.49930770740773       -1.72600821233405
