16
 energy: -25.749036269358 gnorm: 0.000046686364 xtb: 6.7.1 (edcfbbe)
O            2.52079854954646       -0.78714073117325       -1.06209558548429
H            0.60414149455684       -0.74868290684642        0.65757957743758
H            1.78144566581095       -0.47234802459208       -1.59485979839552
O            4.87366706565969       -2.38487801821743        1.62621973742466
H            5.32138812837570       -0.07621527176102        2.33898784285115
H            4.22910274414460       -3.07705051784335        1.44613189496819
C            4.49142720424946       -1.23009496902897        0.91377748070967
N            5.30274571033226       -0.11628870932564        1.32372563278024
H            4.61567286728551       -1.38125749201220       -0.16771841698418
N            3.08678811384740       -0.98543983521635        1.14544572628687
H            0.98568027822345        0.71365006482010        1.30656547152714
H            6.25660666343924       -0.24366055616904        1.00823642595740
H            2.96012799203542       -0.59823223221138        2.07671656066195
C            2.45330387922071       -0.12195116303141        0.16307291337327
N            1.07371412123509        0.13428728118433        0.48110750000600
H            2.97189952203730        0.85783308142414        0.08475703687981
