15
 energy: -26.852740036512 gnorm: 0.000026054419 xtb: 6.7.1 (edcfbbe)
C            4.04321356774731       -0.79249308085695       -0.14369805682364
N            4.30332139949161       -1.98428917326650        0.13282506316025
H            4.13334209835371        0.08062224250350        0.52416868481823
O            2.77452170261560        0.38709374266833       -5.16239735031690
H            1.82293693572431        1.23203300320180       -3.03660515921282
H            5.36161134008533        1.14676846039740       -2.17993927944794
C            3.32102688293138        0.39816416106655       -4.09441778373721
N            2.79042893872165        0.94881181471248       -2.97332493931407
H            4.32849839792041       -0.01688613392907       -3.92249188665084
O            3.60312309292097       -0.48905725227818       -1.37536947602208
H            4.57155181318546        2.54418642442393       -1.79557742447660
H            4.61778125121919       -2.14563948680630        1.08242788930692
C            3.41363432827715        0.87601183554868       -1.66975146450047
N            4.66787662302516        1.56281895961867       -1.56879658732542
H            2.72019162778080        1.33428448299566       -0.94382222945740
