13
 energy: -20.652767641132 gnorm: 0.000022579765 xtb: 6.7.1 (edcfbbe)
O            1.47002110310411       -0.46655708438049       -0.43463531540489
H            2.53530522651456       -1.32208301262566        2.45859741928892
H            0.80257095344987       -1.16489502087883       -0.41782371614830
C            2.46146760586336       -0.78118126587968        0.49365556609516
N            1.84020817952756       -1.08271809163617        1.76273280126379
H            3.13023982330501        0.09974162027098        0.49569690704671
N            3.24293241049876       -1.92598145134672        0.12399163215547
H            5.49393306238740       -2.83075619228281       -1.90516387124455
H            1.30359712199925       -0.28857160479009        2.09129772729561
H            2.79601607808827       -2.82665546836287        0.22907402258948
C            4.26048893192732       -1.88980964886654       -0.77294872125809
N            4.69850980660759       -2.95539179501914       -1.28902301648882
H            4.64526969672681       -0.87353098420175       -0.93955143519059
