6
 energy: -10.629942011536 gnorm: 0.000007673742 xtb: 6.7.1 (edcfbbe)
O            1.11281793911170       -0.05540949011724        0.02608545378413
H            4.02863381386862       -1.19437072771548       -0.22729998930992
H            0.75021234782106       -0.93402586662245       -0.16938584792333
C            2.43680666448955       -0.13552833758958        0.00826303830530
N            3.01679589294310       -1.22160357215608       -0.23336018617527
H            2.88694334176597        0.83990799420084        0.22526753131909
