14
 energy: -27.495715102814 gnorm: 0.000044731731 xtb: 6.7.1 (edcfbbe)
O            6.28542311657032       -1.59476037456570       -1.05397904679999
H            3.91816544698622       -1.55725281393433        0.24686442096137
H            7.32787087886531        0.94893111898463       -2.54046469545340
C            6.31373173445395       -0.52608506628137       -1.86203388936600
N            7.36498501221668        0.15146935363032       -1.91685156363283
H            5.37206936082046       -0.35191174734321       -2.40475867728564
O            3.99120001383258       -1.61596675958471       -0.71469293513327
C            5.07625215666173       -2.39158034602240       -1.04498480193795
H            4.89594674073861       -2.75246348335784       -2.07232412098530
O            7.50074386206614       -3.54189547241983        0.25262717368400
H            7.57387380731586       -2.72523977433941       -0.27916619797961
C            6.24919774279942       -3.94797737319833        0.33738810460176
N            5.19189961445482       -3.50013995915846       -0.17856441930935
H            6.14342051221763       -4.82587730240931        0.96733064863610
