16
 energy: -25.751034592455 gnorm: 0.000036470276 xtb: 6.7.1 (edcfbbe)
O            1.86142367703222        0.10064902594670       -0.44224162864828
H            2.96055038092225        1.18997688645775        1.78847709840064
H            1.21821713937124        0.44902102608355        0.18814243625071
O            3.03798812355953       -1.11731944430304        1.11433297722485
H            5.05241490478848        2.20905151889456       -0.68184920803646
H            2.78306142450906       -1.92099027586088        0.64821499012882
C            3.08285042917130       -0.04557081601950        0.19977156207527
N            3.44361273235997        1.15000463052015        0.89539276280658
H            3.82197797124167       -0.22678043358728       -0.59223696882953
N            4.98504912318883        2.43314982881733        2.05825543180068
H            6.48708102216531        1.68626224052449       -0.04872483565913
H            5.95813657311738        2.63460612278751        2.25598630018093
H            4.55416349170792        3.26102752027736        1.65971827600948
C            4.86211892038881        1.32050931642693        1.13671040261375
N            5.50316743412213        1.46915475935154       -0.15430505758722
H            5.31973665235365        0.44162809368271        1.62606546126891
