9
 energy: -16.165463406657 gnorm: 0.000022742787 xtb: 6.7.1 (edcfbbe)
C            0.37111102236063        0.95338753895704        1.27908069654835
N           -0.66366518420938        0.33427859170318        1.60693097434610
H            0.58855635126272        1.40820590420480        0.29082813346246
O            1.35205628654309        1.11320177058192        2.17753924678415
H            4.18939443683579        2.43702608286938        2.33686212570838
H           -1.36969616964102        0.24538157639643        0.88628676242362
C            2.46080810972774        1.77724920996217        1.82436445067572
N            3.37665727102289        1.92714994577106        2.66120011424920
H            2.45123787609754        2.14254937955402        0.77686749580202
