15
 energy: -26.881453197115 gnorm: 0.000034371365 xtb: 6.7.1 (edcfbbe)
O            1.13272514160849       -2.66735657005527       -0.11028611575929
H            3.62488956228423       -2.59662135731116       -0.01936410915027
H            5.41534311357627       -0.37560206660304       -0.05888691131946
C            1.81317975714788       -1.85385877084137        0.45775767244744
N            3.15583637479830       -1.89954446243197        0.54551983907740
H            1.39071459954817       -0.99710832119776        1.01755234208263
O            4.53499333227779       -0.04535104948042        0.16248119009028
C            4.00511506736338       -0.87370542662915        1.14010441189738
H            3.35023352704963       -0.24512278674686        1.76769617129571
N            3.73275786309916       -2.67058907710146        3.39050486576824
H            3.72833483974258       -3.35605980583829        4.12370401749329
H            2.85835263644403       -2.46640025876221        2.93717283869381
C            4.89463438271725       -2.24217058064231        2.85392291742812
N            5.08108918711687       -1.45810673788016        1.87640016509490
H            5.78891061522571       -2.60627272847845        3.34725070486004
