10
 energy: -15.553834059721 gnorm: 0.000026117289 xtb: 6.7.1 (edcfbbe)
C            0.60979164740537       -0.51570666886717       -0.32877978209134
N           -0.00095149036070        0.07135115107083        0.60715930968149
H            0.00116905373850       -0.96382836642368       -1.11245924736500
N            2.75441518489333       -1.84457538202113        1.17410219091475
H            0.61334558152835        0.50995053988147        1.29363606428079
H            3.53613638637505       -2.35537070467500        1.54153007229404
H            1.83133001368080       -2.10782835962580        1.47933268754631
C            2.88190684090076       -1.05584044209879        0.07981135887977
N            1.94757562352024       -0.54321463172982       -0.59509203786743
H            3.90261115831842       -0.87320713551102       -0.24118061627325
