15
 energy: -26.795000800499 gnorm: 0.000019878470 xtb: 6.7.1 (edcfbbe)
N            4.72078298897827        0.48876766320844       -1.71690107923695
H            6.08191412879913        2.34846130407603        0.55652403304849
H            3.21968200294395        0.60727105092317        0.52297789155867
H            4.43821603948220       -0.31230110715305       -1.15694089768727
C            5.30294161740913        1.41103825318759       -1.09580506198341
N            5.60624184827136        1.52218171098295        0.23885558481587
H            5.65436177198348        2.25971826229603       -1.67544785988343
O            7.57636619747061       -0.25346530664939        1.27883060605204
C            6.66716588875537       -1.19533430911223        0.93908975127989
H            8.45662495134594       -0.64864241756570        1.28007742053777
O            5.46441314546303       -0.74900102529425        0.91656665811667
H            3.34991385317128        0.08572299772860        2.08233248190364
C            5.10965947400934        0.63753642944173        1.24526809794556
N            3.69828449710162        0.75252773887656        1.40511454459688
H            5.60119159481514        0.87385875505372        2.19868782893534
