14
 energy: -27.498130486970 gnorm: 0.000042296544 xtb: 6.7.1 (edcfbbe)
O           -0.77568201182690        0.39882314388236       -0.28478222985782
H            1.23342634930248       -0.56373557033280        0.83402702760195
H            3.56892905186039       -1.15746694423470       -0.23852558540652
C            0.35813268577297        0.75611918539686       -0.43063266352457
N            1.42481041918958        0.18220195631955        0.17684537155525
H            0.65876990439960        1.58796602062149       -1.09232464172331
O            3.55177635878873       -0.29522510784969       -0.67631258288241
C            2.78674063969018        0.59200056396906        0.05059000058011
H            2.82944815992175        1.54343772622132       -0.50371066907051
O            3.28472960818667        0.73398558365938        1.35937931168037
H            5.71373815839265        2.15559265298339        2.74014482083253
C            4.36339180486917        1.51723161165103        1.54119775781320
N            4.92156346487789        1.52963578108165        2.65829313641835
H            4.64977540657450        2.09350339663096        0.64356094598335
