8
 energy: -16.841369328843 gnorm: 0.000035438083 xtb: 6.7.1 (edcfbbe)
O            2.76458973221304       -1.02269233285608       -0.30735671338183
C            2.35527988256474        0.05001824295192        0.09342982264913
H            1.32354942746829        0.18311121972226        0.44697623012341
O            4.99257442902749        0.22486275094734       -0.67850144911560
H            4.40301314190031       -0.58207498331757       -0.70159106999830
C            4.29788911088076        1.21951128032058       -0.20960214646712
N            3.07082051921451        1.21929251608778        0.17038282708183
H            4.84487375673077        2.15690130614352       -0.13978750089178
