11
 energy: -14.440031565125 gnorm: 0.000025107151 xtb: 6.7.1 (edcfbbe)
N            1.11220765276080        0.06867301577006       -0.04044133091039
H            2.77870287626524       -0.33502656427061       -2.11015434216118
H            0.72217251351464        0.48746559784166       -0.87875687007389
H            0.77289585816061       -0.88283832534431        0.02340547508601
N            3.00129374409652        1.43878878047881       -0.11043937138729
H            4.02012141811228       -0.89826532491812       -1.19143208479967
H            4.01209027373741        1.49527215390760       -0.11370578560011
H            2.63920293324068        1.93965008726777       -0.91465850653708
C            2.54813042777991        0.06634299593089       -0.10351441053813
N            3.01645395726000       -0.76345879057456       -1.21963223407907
H            2.92543834507190       -0.40164362608917        0.81449946100079
