12
 energy: -21.283661071046 gnorm: 0.000030092054 xtb: 6.7.1 (edcfbbe)
O            0.75588745062863       -0.49432231417428       -0.46686918367210
H            2.79622437884666       -0.88195952874769       -2.09275348931093
H            0.53034842625254       -0.64133119237993       -1.39507912263609
C            2.08036926145644       -0.14368187778928       -0.36346026422243
N            2.92502908027954       -1.02032956005252       -1.09554383345689
H            2.32593099763766       -0.19284897124418        0.70731617495278
O            2.28548209107085        1.19831386166637       -0.84032272780371
H            1.31942453845583        4.05728862909648       -0.01169138508826
H            3.89966410561363       -0.86284679071086       -0.87701209297064
C            1.69746035396550        2.18819255253360       -0.16086391731962
N            1.78092302188474        3.36248331425788       -0.58749578068215
H            1.17149629390796        1.85064187754442        0.74952562221006
