12
 energy: -21.302489861650 gnorm: 0.000044484180 xtb: 6.7.1 (edcfbbe)
O            1.61250197646615        0.10214418479642       -0.29628794450980
H            2.30868003224951       -1.09518678545975        1.92721045830534
H            0.79308447018608        0.15776062357224        0.20764999278621
C            2.67044869815099        0.39054990625042        0.60543607103460
N            2.27736001284081       -0.07928571037419        1.91307694718203
H            2.79814626473517        1.48711221955824        0.67409639991707
O            3.42098256556872       -0.86691011205560       -1.95647433446623
H            2.93125420664376        0.25319481745314        2.61053730613182
H            2.52292288012968       -0.53616609419237       -1.76207045747158
C            4.19215057544772       -0.67829259618806       -0.89388166388839
N            3.93367341934486       -0.15003539200061        0.21580610483513
H            5.20160489823698       -1.04800506136005       -1.04498887985615
