12
 energy: -21.753019985652 gnorm: 0.000034790914 xtb: 6.7.1 (edcfbbe)
C            0.92189031119684        0.04622319810715        0.60495231892950
N            0.06864060093738        0.05754137183692       -0.32175665059688
H            0.72120085461453        0.15865404527046        1.68076525950847
C            2.77053649231418       -0.74869150624419       -0.56781012870901
N            2.26591679253047       -0.00595043295378        0.34894082044585
H            2.17287573290851       -1.47363145021057       -1.12154972032231
O            4.70050194819504        0.74241117048739        0.76724949364865
H           -0.89523335391257        0.17092123550064       -0.02397245020757
H            3.71744190871191        0.70586305141307        0.95719970899902
C            4.92485827397299       -0.01510958426660       -0.27196385802501
N            4.08576987381902       -0.73586643644171       -0.91804865916885
H            5.96113056471082       -0.03838466249780       -0.59580613450156
