9
 energy: -15.733197525830 gnorm: 0.000022765204 xtb: 6.7.1 (edcfbbe)
O            1.38045391657495        0.33905723464364       -0.06132135518645
H            2.58839656754731       -0.76374990082978        2.04106841387854
H            0.82850071659097       -0.20081469207130        0.51857476104810
O            3.12818300391219       -1.13878211867750       -0.31567357063856
H            3.93480047240854        0.14772199212314        1.84005045777096
H            2.89322526751805       -1.17283175948231       -1.24928806962599
C            2.71301538643512        0.09771199598964        0.22867215346033
N            2.94523250103584        0.09756946666664        1.63777358067914
H            3.27139216797703        0.92683778163778       -0.23186637138606
