18
 energy: -31.973984195147 gnorm: 0.000011784954 xtb: 6.7.1 (edcfbbe)
O            3.70594470481110       -2.18647541445166        1.56138558150202
H            2.01329430912369        2.67401889047808        0.01390121046688
H            3.87371156891715        0.29027909519683        1.67455318520203
C            3.34472650428380       -1.40820906704009        0.71979883035310
N            3.47166491199873       -0.06861469350725        0.81753545724913
H            2.87019749632837       -1.71230098859838       -0.22932230936268
O            0.10297503137720        0.85556739005109       -0.22350385405940
H            0.63381225411125        2.72350230614981        2.31276996124281
H           -0.24743491799418        1.63605568852080       -0.67356994227255
C            0.82484759030533        1.28613761211879        0.89089729963823
N            0.08804383439368        2.33209694660585        1.55571311915919
H            0.99163528925755        0.37475674662579        1.49232088139749
O            4.05111967839578        1.60314127482197       -0.71369913846316
H           -0.77836998923016        1.96523410577999        1.93245224625465
H            4.52608709002310        2.09262349141992       -0.02957784195582
C            3.00626537370826        0.90729512052994       -0.13197528601223
N            2.12732004906707        1.82848447274093        0.56662722282369
H            2.50471922112221        0.36713702255733       -0.95182662316349
