13
 energy: -20.633617297461 gnorm: 0.000023183870 xtb: 6.7.1 (edcfbbe)
O            4.08722706859153       -0.40594278525592       -2.13196488010506
H            3.03877821982111       -1.79013100177968       -4.73376559644094
H            5.19392840493864       -1.93164253612460       -0.45031766414328
C            3.34927385949631       -1.15304807383963       -2.95665037632478
N            3.65776082633166       -1.21968079894696       -4.16932602268929
H            2.49988150216738       -1.66014755161432       -2.46601927997329
N            4.41783560575544        0.67610411959463       -0.17358443714919
H            4.01123837474040       -1.89941506766465        0.70411937808663
H            4.40312859759343        0.63347500658830        0.83747020194106
H            5.37319927530771        0.76236360871630       -0.49982020029019
C            3.79202958819460       -0.47901698745591       -0.76186598180604
N            4.20399742963085       -1.78493901752116       -0.28279327415635
H            2.70381124743090       -0.40472891469635       -0.58634186694932
