18
 energy: -31.968829710239 gnorm: 0.000033063909 xtb: 6.7.1 (edcfbbe)
O            3.79352205298719       -1.93096548089068        0.92616315728520
H            3.25843834285798       -3.99644349857789        5.68590395140604
H            4.00017834745896       -3.31503041406236        4.37593312442476
C            1.99817384869019       -3.44971852682702        4.21694393650672
N            3.24529947154877       -3.92062773351309        4.67758280029807
H            2.85935506290835       -1.97078114262757        0.67155960877234
O            0.97932198496554       -2.34782622037781        0.98066265329712
H            4.25048101524115       -2.56294394084624        0.36804272764107
H            0.42324998710511       -1.57430219199395        0.81961525924011
C            0.78411072526327       -2.69407838989652        2.31999456207065
N            1.98636327987183       -3.33314499989662        2.80834477772205
H           -0.05036780218755       -3.41853928852408        2.40049792437017
O            1.67529783128302       -2.15677638395209        4.88861396898147
H            2.80874461117770       -2.83694489592195        2.46308305336517
H            1.20087122834898       -4.13769807568941        4.53819962890413
C            0.89763950779295       -1.33746309787447        4.19379227493851
N            0.41462467774755       -1.50159008173203        3.04310678287015
H            0.66985582693871       -0.42301563680444        4.73232980792172
