15
 energy: -26.856906612250 gnorm: 0.000034189746 xtb: 6.7.1 (edcfbbe)
O            1.42164803829845       -0.67294782283419        0.81782749632557
H            3.50399556632286       -1.93242687290274       -0.78326206563637
H            0.01506718086069       -3.04588044273329        2.28524731078797
C            1.10955291689140       -1.91440445924892        1.19771350203770
N            0.22993351936937       -2.07701129059237        2.07841462577869
H            1.66721384791771       -2.70798411904892        0.67541706848414
O            2.76361606319394       -1.33808762372663       -0.96553029970707
C            2.65148731669383       -0.47541219408444        0.10372912662461
H            2.54379778620899        0.55312335205005       -0.28181275956093
N            2.94253654981649        0.57552180433184        2.77146044179417
H            3.07555071195065        0.79764703914325        3.74173856454475
H            2.00630873606982        0.63050552692164        2.39811972927774
C            3.86937065761697       -0.12917028949726        2.09944753020225
N            3.80457301406840       -0.61340900727333        0.92631020075293
H            4.81084809472013       -0.28215360050471        2.61622952829199
