15
 energy: -26.868905000238 gnorm: 0.000047941511 xtb: 6.7.1 (edcfbbe)
C            1.30887636808437        0.23171864736591        2.62719710018150
N            0.25326075442219       -0.45511065402846        2.67744638784803
H            2.12448964392123        0.25202069937280        3.36156922921460
O            3.32058638462739        3.47333647618833       -1.75843898979945
H            1.94628203606029        3.31253414762627        0.29833792145761
H            0.16598205492827       -1.04224559216662        3.49906803969775
C            3.43625872601737        2.65224555716936       -0.89206404209108
N            2.64151148035756        2.58229452644982        0.20164697361956
H            4.19541016348278        1.85069533108251       -0.90412069895259
O            3.32537891537751        2.29529668902811        2.43006272068326
H            0.85311387082389        1.01750582419117        0.83415516462866
H            2.69331178148075        2.93773535681254        2.78005688518978
C            2.79831368588171        1.67794948871159        1.30706689484013
N            1.50405408848632        1.10946165789635        1.60090863180165
H            3.54752004604866        0.92018184430017        1.02000778168047
