18
 energy: -31.940875494732 gnorm: 0.000017578547 xtb: 6.7.1 (edcfbbe)
O            2.39291022541180        1.20769530549125       -1.91045390230836
H           -0.04866259270976        2.00711500423557       -1.51439712298008
H            3.53542479466626        1.69510537297301        0.10014408361788
O            1.19493172095475        1.93232507389741       -3.66941241270101
H           -0.75593453506804        0.77858530291281       -2.34541580941393
H            2.09901253205446        2.13446179127803       -3.93477475386912
C            1.22366116191688        0.96833796789352       -2.66742936316168
N            0.07051113434293        1.04897187575874       -1.82820653012049
H            1.27006375249286       -0.05092132146125       -3.09679339011236
C            2.69957585943594        0.21047804238515       -0.98522635584814
N            3.73616534082024        0.73533683217538       -0.14572959407067
H            1.77632803708138       -0.10516609024657       -0.46052743831533
O            3.13487742394460       -0.96946612632933       -1.61866305434328
H            5.51917011052963       -1.70910512249265       -3.51528135687017
H            3.84225830691157        0.17605673404001        0.69055135731037
C            4.26127683294725       -0.86896002117066       -2.34719206786235
N            4.65944188236951       -1.86165229340901       -2.99945560360904
H            4.73419801189771        0.12257167206861       -2.28903668534226
