18
 energy: -31.969808098070 gnorm: 0.000043933792 xtb: 6.7.1 (edcfbbe)
O            2.86221494034590       -0.94216135533260        0.78547259673595
H            2.51757322823208        1.73706056789977       -0.84639099936404
H            5.65350822801777        2.75720656592786        0.13326117672411
C            2.34935474677695       -0.01432485944802        0.20237904347177
N            3.01233287515475        1.00044703081093       -0.37020312807287
H            1.25675586870602        0.07183918685468        0.07968246812183
C            4.44982152564655        1.16502520605490       -0.26410083986200
N            4.71871940585258        2.57355659867439       -0.20740364021900
H            4.75307036628354        0.70154878885307        0.69056270452627
O            5.70483906216289       -1.36516072196698       -2.56907829010117
H            4.63033925830547        2.97971648265714       -1.13300588010178
H            5.58542381030961       -0.77897100437994       -3.32383970695213
O            5.29693266741216       -1.59735044484070       -0.39523476286701
H            6.10171808678820        0.70400642391498       -1.34561429945146
H            4.54556234604267       -1.62686644206656        0.22471831527292
C            4.91507149814016       -0.90788905892530       -1.52696049793265
N            5.09940781675876        0.53769506278947       -1.41536997662285
H            3.84261426906433       -1.07467802747691       -1.75392428330635
