14
 energy: -27.503530976189 gnorm: 0.000043174285 xtb: 6.7.1 (edcfbbe)
O            3.11765396486667       -0.96688644557119        0.78910237829780
O            2.67673851382785       -0.11449056005458       -1.19877435572228
H            2.06041721790554        0.41261347391319       -1.71730933152699
C            2.44343637892467        0.05371068110101        0.15068367761595
H            1.36460225247917        0.04559309083962        0.38654550212370
O            0.87399262958380        2.02269115343383        1.33280168647310
C            2.04517166759028        2.24102914068161        1.17118146948902
H            2.52911241996781        3.18666936813149        1.46937842765593
N            5.19718639043924        1.00903691808739       -0.04562636523947
H            2.82134226789660       -1.04995445473855        1.70119863161276
H            4.93259012497286        0.08681092854034       -0.38239508085599
C            4.28750383611815        1.69709621031228        0.44887808034635
N            2.92983989900923        1.37078717526549        0.60748973841883
H            4.52018243641817        2.69050332005810        0.82303554131126
