18
 energy: -31.947153609398 gnorm: 0.000035471288 xtb: 6.7.1 (edcfbbe)
O           -2.28426105963457       -0.33873614676653        1.55254753908620
H           -0.34368260648085       -1.95550959503811        2.36277834066916
H            0.74330590035831       -0.72192090368807        2.49498545579231
C           -0.91411358017698       -0.27205730810679        1.39481259585898
N           -0.24044043168014       -0.95113931024179        2.46051549895611
H           -0.65998396991390        0.79818274129844        1.43605300380054
O           -1.20203925763434       -1.05388815083112       -2.13512073149125
H           -2.53905431745768       -1.26550777183736        1.64903477147189
H           -0.31753963310195       -1.38578161488107       -2.33791362330088
C           -1.14343484329150       -0.22775119238287       -1.03668371307504
N           -0.55938700647239       -0.87171750669830        0.09343800289357
H           -2.18122311429815        0.04167179819629       -0.79662414332779
O           -0.37636395846222        0.93963370357081       -1.33314009335380
H           -0.80024653607540        3.59565383225933       -2.93135486828629
H            0.45044951506029       -0.90121470210358       -0.01449646413322
C           -0.96369624026317        1.91215124836543       -2.03786870066403
N           -0.28241775542358        2.89069413546366       -2.41957885719627
H           -2.04103110505221        1.74541674342164       -2.21486401370015
