18
 energy: -31.958039730330 gnorm: 0.000026371847 xtb: 6.7.1 (edcfbbe)
O            2.84918861117729        0.51774866391635        0.67458247595136
H            4.91293757412207        1.11567177908983        2.06673787835570
H            1.70843347912230       -2.45138470411777        1.21657270623037
O            2.58125399894074        2.32598116196507        1.97233986512252
H            4.20443396025732        0.94437693837123        3.54611120744943
H            3.05928109790685        2.73220891875688        1.23741234582935
C            2.88886830750618        0.97558558325372        2.00512231798989
N            4.16613084914802        0.65587401272200        2.57753833493525
H            2.11090340738808        0.48929643960555        2.61245101102546
C            0.46095794125048       -1.03701341734893        0.52855679997624
N           -0.56446225233522       -1.75861235514061        0.66886184272375
H            0.49465791192166       -0.01217567811384        0.13355239580375
O            3.22660172839162       -1.12786796488877       -0.80827644537937
H           -1.43314078699788       -1.31791094336621        0.38700151417236
H            2.61253754329715       -0.64250191402090       -1.37515970183172
C            2.91657759969581       -0.87337098294176        0.50990274406538
N            1.68157166213584       -1.48336917095549        0.93495879007982
H            3.73078736707151       -1.29533636678619        1.11557391749941
